Circuit: * Netlist 2

Direct Newton iteration for .op point succeeded.

Date: Thu Oct 14 20:37:39 2021
Total elapsed time: 0.101 seconds.

tnom = 27
temp = 27
method = trap
totiter = 3
traniter = 0
tranpoints = 0
accept = 0
rejected = 0
matrix size = 6
fillins = 5
solver = Normal
Matrix Compiler1: 530 bytes object code size
Matrix Compiler2: 524 bytes object code size
