Circuit: *Netlist solution // * is a comment line

Direct Newton iteration for .op point succeeded.

Date: Sat Oct 16 22:46:04 2021
Total elapsed time: 0.029 seconds.

tnom = 27
temp = 27
method = trap
totiter = 3
traniter = 0
tranpoints = 0
accept = 0
rejected = 0
matrix size = 4
fillins = 0
solver = Normal
Matrix Compiler1: 118 bytes object code size
Matrix Compiler2: 282 bytes object code size
