Circuit: * Netlist 2

Direct Newton iteration for .op point succeeded.

Date: Fri Oct 15 13:06:37 2021
Total elapsed time: 0.029 seconds.

tnom = 27
temp = 27
method = trap
totiter = 3
traniter = 0
tranpoints = 0
accept = 0
rejected = 0
matrix size = 6
fillins = 1
solver = Normal
Matrix Compiler1: 258 bytes object code size
Matrix Compiler2: 422 bytes object code size
